16500
  -OEChem-02102316342D

 63 66  0     1  0  0  0  0  0999 V2000
    6.0010   -2.1366    0.0000 P   0  0  3  0  0  0  0  0  0  0  0  0
    6.8671   -0.6365    0.0000 P   0  0  3  0  0  0  0  0  0  0  0  0
    8.7036    2.3580    0.0000 O   0  0  0  0  0  0  0  0  0  0  0  0
    4.2690   -3.1366    0.0000 O   0  0  0  0  0  0  0  0  0  0  0  0
    9.7206   -0.0214    0.0000 O   0  0  0  0  0  0  0  0  0  0  0  0
   11.1763    1.5953    0.0000 O   0  0  0  0  0  0  0  0  0  0  0  0
    7.7331   -0.1365    0.0000 O   0  0  0  0  0  0  0  0  0  0  0  0
    6.0010   -3.1366    0.0000 O   0  0  0  0  0  0  0  0  0  0  0  0
    4.2690   -6.1366    0.0000 O   0  0  0  0  0  0  0  0  0  0  0  0
    2.5369   -5.1366    0.0000 O   0  0  0  0  0  0  0  0  0  0  0  0
    6.0010   -5.1366    0.0000 O   0  0  0  0  0  0  0  0  0  0  0  0
    6.0010   -1.1366    0.0000 O   0  0  0  0  0  0  0  0  0  0  0  0
    2.5369   -2.1366    0.0000 O   0  0  0  0  0  0  0  0  0  0  0  0
    7.0010   -2.1366    0.0000 O   0  0  0  0  0  0  0  0  0  0  0  0
    6.3671    0.2295    0.0000 O   0  0  0  0  0  0  0  0  0  0  0  0
    5.0010   -2.1366    0.0000 O   0  0  0  0  0  0  0  0  0  0  0  0
    7.3671   -1.5026    0.0000 O   0  0  0  0  0  0  0  0  0  0  0  0
   10.0885    3.4794    0.0000 N   0  0  0  0  0  0  0  0  0  0  0  0
   10.2540    5.0804    0.0000 N   0  0  0  0  0  0  0  0  0  0  0  0
   11.8711    3.0989    0.0000 N   0  0  0  0  0  0  0  0  0  0  0  0
   12.8867    4.5019    0.0000 N   0  0  0  0  0  0  0  0  0  0  0  0
   12.1795    6.0830    0.0000 N   0  0  0  0  0  0  0  0  0  0  0  0
    9.5127    0.9567    0.0000 C   0  0  1  0  0  0  0  0  0  0  0  0
   10.1818    1.6999    0.0000 C   0  0  2  0  0  0  0  0  0  0  0  0
    8.5991    1.3634    0.0000 C   0  0  1  0  0  0  0  0  0  0  0  0
    9.6818    2.5659    0.0000 C   0  0  1  0  0  0  0  0  0  0  0  0
    4.2690   -5.1366    0.0000 C   0  0  1  0  0  0  0  0  0  0  0  0
    3.4030   -4.6366    0.0000 C   0  0  1  0  0  0  0  0  0  0  0  0
    5.1350   -4.6366    0.0000 C   0  0  2  0  0  0  0  0  0  0  0  0
    3.4030   -3.6366    0.0000 C   0  0  1  0  0  0  0  0  0  0  0  0
    7.7331    0.8635    0.0000 C   0  0  0  0  0  0  0  0  0  0  0  0
    5.1350   -3.6366    0.0000 C   0  0  2  0  0  0  0  0  0  0  0  0
    2.5369   -3.1366    0.0000 C   0  0  0  0  0  0  0  0  0  0  0  0
   11.0611    3.6853    0.0000 C   0  0  0  0  0  0  0  0  0  0  0  0
    9.5907    4.3399    0.0000 C   0  0  0  0  0  0  0  0  0  0  0  0
   11.1639    4.6800    0.0000 C   0  0  0  0  0  0  0  0  0  0  0  0
   12.0767    5.0883    0.0000 C   0  0  0  0  0  0  0  0  0  0  0  0
   12.7839    3.5072    0.0000 C   0  0  0  0  0  0  0  0  0  0  0  0
   10.1115    0.7962    0.0000 H   0  0  0  0  0  0  0  0  0  0  0  0
   10.5195    2.2198    0.0000 H   0  0  0  0  0  0  0  0  0  0  0  0
    8.0791    1.7011    0.0000 H   0  0  0  0  0  0  0  0  0  0  0  0
    9.2916    3.0477    0.0000 H   0  0  0  0  0  0  0  0  0  0  0  0
    3.7320   -5.4466    0.0000 H   0  0  0  0  0  0  0  0  0  0  0  0
    3.4030   -5.2566    0.0000 H   0  0  0  0  0  0  0  0  0  0  0  0
    5.1350   -5.2566    0.0000 H   0  0  0  0  0  0  0  0  0  0  0  0
    3.4030   -3.0166    0.0000 H   0  0  0  0  0  0  0  0  0  0  0  0
    7.5210    1.4461    0.0000 H   0  0  0  0  0  0  0  0  0  0  0  0
    7.1225    0.7558    0.0000 H   0  0  0  0  0  0  0  0  0  0  0  0
    5.1350   -3.0166    0.0000 H   0  0  0  0  0  0  0  0  0  0  0  0
    1.9264   -3.0289    0.0000 H   0  0  0  0  0  0  0  0  0  0  0  0
    2.3249   -3.7192    0.0000 H   0  0  0  0  0  0  0  0  0  0  0  0
   10.3102   -0.2130    0.0000 H   0  0  0  0  0  0  0  0  0  0  0  0
   11.4285    1.0289    0.0000 H   0  0  0  0  0  0  0  0  0  0  0  0
    8.9740    4.4036    0.0000 H   0  0  0  0  0  0  0  0  0  0  0  0
    3.7320   -6.4466    0.0000 H   0  0  0  0  0  0  0  0  0  0  0  0
    2.0000   -4.8266    0.0000 H   0  0  0  0  0  0  0  0  0  0  0  0
    6.0010   -5.7566    0.0000 H   0  0  0  0  0  0  0  0  0  0  0  0
    2.0000   -1.8266    0.0000 H   0  0  0  0  0  0  0  0  0  0  0  0
   13.2862    3.1436    0.0000 H   0  0  0  0  0  0  0  0  0  0  0  0
    7.3110   -2.6735    0.0000 H   0  0  0  0  0  0  0  0  0  0  0  0
    5.7471    0.2295    0.0000 H   0  0  0  0  0  0  0  0  0  0  0  0
   12.7455    6.3362    0.0000 H   0  0  0  0  0  0  0  0  0  0  0  0
   11.6773    6.4466    0.0000 H   0  0  0  0  0  0  0  0  0  0  0  0
  1  8  1  0  0  0  0
  1 12  1  0  0  0  0
  1 14  1  0  0  0  0
  1 16  2  0  0  0  0
  2  7  1  0  0  0  0
  2 12  1  0  0  0  0
  2 15  1  0  0  0  0
  2 17  2  0  0  0  0
  3 25  1  0  0  0  0
  3 26  1  0  0  0  0
  4 30  1  0  0  0  0
  4 32  1  0  0  0  0
 23  5  1  6  0  0  0
  5 52  1  0  0  0  0
 24  6  1  6  0  0  0
  6 53  1  0  0  0  0
  7 31  1  0  0  0  0
 32  8  1  6  0  0  0
 27  9  1  1  0  0  0
  9 55  1  0  0  0  0
 28 10  1  6  0  0  0
 10 56  1  0  0  0  0
 29 11  1  6  0  0  0
 11 57  1  0  0  0  0
 13 33  1  0  0  0  0
 13 58  1  0  0  0  0
 14 60  1  0  0  0  0
 15 61  1  0  0  0  0
 26 18  1  1  0  0  0
 18 34  1  0  0  0  0
 18 35  1  0  0  0  0
 19 35  2  0  0  0  0
 19 36  1  0  0  0  0
 20 34  2  0  0  0  0
 20 38  1  0  0  0  0
 21 37  1  0  0  0  0
 21 38  2  0  0  0  0
 22 37  1  0  0  0  0
 22 62  1  0  0  0  0
 22 63  1  0  0  0  0
 23 24  1  0  0  0  0
 23 25  1  0  0  0  0
 23 39  1  0  0  0  0
 24 26  1  0  0  0  0
 24 40  1  0  0  0  0
 25 31  1  1  0  0  0
 25 41  1  0  0  0  0
 26 42  1  0  0  0  0
 27 28  1  0  0  0  0
 27 29  1  0  0  0  0
 27 43  1  0  0  0  0
 28 30  1  0  0  0  0
 28 44  1  0  0  0  0
 29 32  1  0  0  0  0
 29 45  1  0  0  0  0
 30 33  1  1  0  0  0
 30 46  1  0  0  0  0
 31 47  1  0  0  0  0
 31 48  1  0  0  0  0
 32 49  1  0  0  0  0
 33 50  1  0  0  0  0
 33 51  1  0  0  0  0
 34 36  1  0  0  0  0
 35 54  1  0  0  0  0
 36 37  2  0  0  0  0
 38 59  1  0  0  0  0
M  END
> <PUBCHEM_COMPOUND_CID>
16500

> <PUBCHEM_COMPOUND_CANONICALIZED>
1

> <PUBCHEM_CACTVS_COMPLEXITY>
925

> <PUBCHEM_CACTVS_HBOND_ACCEPTOR>
19

> <PUBCHEM_CACTVS_HBOND_DONOR>
9

> <PUBCHEM_CACTVS_ROTATABLE_BOND>
9

> <PUBCHEM_CACTVS_SUBSKEYS>
AAADceB7vAMAAAAAAAAAAAAAAAAAAWJAAAAsSAAAAAAAAFgB+AAAHgAQCCAACBzxlwcF+L9MFxCgQQZhZICAgC0REKABUCAoVBCTWAJAyEAeRAgPAALXACHwcAYAAAAAAAAAAAAAAAAAAAAAAAAAAAAAAA==

> <PUBCHEM_IUPAC_OPENEYE_NAME>
[[(2R,3S,4R,5R)-5-(6-aminopurin-9-yl)-3,4-dihydroxy-tetrahydrofuran-2-yl]methoxy-hydroxy-phosphoryl] [(2R,3R,4S,5S,6R)-3,4,5-trihydroxy-6-(hydroxymethyl)tetrahydropyran-2-yl] hydrogen phosphate

> <PUBCHEM_IUPAC_CAS_NAME>
[[(2R,3S,4R,5R)-5-(6-aminopurin-9-yl)-3,4-dihydroxy-2-oxolanyl]methoxy-hydroxyphosphoryl] [(2R,3R,4S,5S,6R)-3,4,5-trihydroxy-6-(hydroxymethyl)-2-oxanyl] hydrogen phosphate

> <PUBCHEM_IUPAC_NAME_MARKUP>
[[(2<I>R</I>,3<I>S</I>,4<I>R</I>,5<I>R</I>)-5-(6-aminopurin-9-yl)-3,4-dihydroxyoxolan-2-yl]methoxy-hydroxyphosphoryl] [(2<I>R</I>,3<I>R</I>,4<I>S</I>,5<I>S</I>,6<I>R</I>)-3,4,5-trihydroxy-6-(hydroxymethyl)oxan-2-yl] hydrogen phosphate

> <PUBCHEM_IUPAC_NAME>
[[(2R,3S,4R,5R)-5-(6-aminopurin-9-yl)-3,4-dihydroxyoxolan-2-yl]methoxy-hydroxyphosphoryl] [(2R,3R,4S,5S,6R)-3,4,5-trihydroxy-6-(hydroxymethyl)oxan-2-yl] hydrogen phosphate

> <PUBCHEM_IUPAC_SYSTEMATIC_NAME>
[[(2R,3S,4R,5R)-5-(6-aminopurin-9-yl)-3,4-bis(oxidanyl)oxolan-2-yl]methoxy-oxidanyl-phosphoryl] [(2R,3R,4S,5S,6R)-6-(hydroxymethyl)-3,4,5-tris(oxidanyl)oxan-2-yl] hydrogen phosphate

> <PUBCHEM_IUPAC_TRADITIONAL_NAME>
[[(2R,3S,4R,5R)-5-adenin-9-yl-3,4-dihydroxy-tetrahydrofuran-2-yl]methoxy-hydroxy-phosphoryl] [(2R,3R,4S,5S,6R)-3,4,5-trihydroxy-6-methylol-tetrahydropyran-2-yl] hydrogen phosphate

> <PUBCHEM_IUPAC_INCHI>
InChI=1S/C16H25N5O15P2/c17-13-7-14(19-3-18-13)21(4-20-7)15-11(26)9(24)6(33-15)2-32-37(28,29)36-38(30,31)35-16-12(27)10(25)8(23)5(1-22)34-16/h3-6,8-12,15-16,22-27H,1-2H2,(H,28,29)(H,30,31)(H2,17,18,19)/t5-,6-,8-,9-,10+,11-,12-,15-,16-/m1/s1

> <PUBCHEM_IUPAC_INCHIKEY>
WFPZSXYXPSUOPY-ROYWQJLOSA-N

> <PUBCHEM_XLOGP3>
-6.2

> <PUBCHEM_EXACT_MASS>
589.08223910

> <PUBCHEM_MOLECULAR_FORMULA>
C16H25N5O15P2

> <PUBCHEM_MOLECULAR_WEIGHT>
589.3

> <PUBCHEM_OPENEYE_CAN_SMILES>
C1=NC(=C2C(=N1)N(C=N2)C3C(C(C(O3)COP(=O)(O)OP(=O)(O)OC4C(C(C(C(O4)CO)O)O)O)O)O)N

> <PUBCHEM_OPENEYE_ISO_SMILES>
C1=NC(=C2C(=N1)N(C=N2)[C@H]3[C@@H]([C@@H]([C@H](O3)COP(=O)(O)OP(=O)(O)O[C@@H]4[C@@H]([C@H]([C@@H]([C@H](O4)CO)O)O)O)O)O)N

> <PUBCHEM_CACTVS_TPSA>
312

> <PUBCHEM_MONOISOTOPIC_WEIGHT>
589.08223910

> <PUBCHEM_TOTAL_CHARGE>
0

> <PUBCHEM_HEAVY_ATOM_COUNT>
38

> <PUBCHEM_ATOM_DEF_STEREO_COUNT>
9

> <PUBCHEM_ATOM_UDEF_STEREO_COUNT>
0

> <PUBCHEM_BOND_DEF_STEREO_COUNT>
0

> <PUBCHEM_BOND_UDEF_STEREO_COUNT>
0

> <PUBCHEM_ISOTOPIC_ATOM_COUNT>
0

> <PUBCHEM_COMPONENT_COUNT>
1

> <PUBCHEM_CACTVS_TAUTO_COUNT>
-1

> <PUBCHEM_COORDINATE_TYPE>
1
5
255

> <PUBCHEM_BONDANNOTATIONS>
28  10  6
29  11  6
26  18  5
18  34  8
18  35  8
19  35  8
19  36  8
20  34  8
20  38  8
21  37  8
21  38  8
25  31  5
30  33  5
34  36  8
36  37  8
23  5  6
24  6  6
32  8  6
27  9  5

$$$$
